#======================================================================

# CRYSTAL DATA

#----------------------------------------------------------------------

data_VESTA_phase_1


_pd_phase_name                         MOF
_cell_length_a                         14.56500
_cell_length_b                         18.85600
_cell_length_c                         15.85500
_cell_angle_alpha                      89.60200
_cell_angle_beta                       89.99600
_cell_angle_gamma                      90.11400
_symmetry_space_group_name_H-M         "P 1"
_symmetry_Int_Tables_number            1

loop_
_symmetry_equiv_pos_as_xyz
   "x, y, z"

loop_
   _atom_site_label
   _atom_site_fract_x
   _atom_site_fract_y
   _atom_site_fract_z
 _atom_site_charge
 Zn1 0.472117 0.959824 0.429923  1.13001607143
 Zn1 0.656534 0.965757 0.363408  1.13001607143
 Zn1 0.53073 0.461743 0.071022  1.13001607143
 Zn1 0.343875 0.466064 0.136763  1.13001607143
 Zn1 0.531415 0.043251 0.569965  1.13001607143
 Zn1 0.344311 0.037149 0.634223  1.13001607143
 Zn1 0.469239 0.541412 0.928666  1.13001607143
 Zn1 0.656087 0.536991 0.863111  1.13001607143
 Zn1 0.03099 0.040777 0.926495  1.13001607143
 Zn1 0.84394 0.036543 0.862449  1.13001607143
 Zn1 0.968606 0.543036 0.569911  1.13001607143
 Zn1 0.155767 0.537205 0.634199  1.13001607143
 Zn1 0.96914 0.961932 0.070599  1.13001607143
 Zn1 0.156097 0.96619 0.135955  1.13001607143
 Zn1 0.027858 0.459792 0.429863  1.13001607143
 Zn1 0.843372 0.465581 0.363509  1.13001607143
 H1 0.652154 0.966792 0.508271  0.477326071429
 H2 0.366632 0.13575 0.297711  0.103479404762
 H2 0.340489 0.256864 0.235694  0.103479404762
 H2 0.612088 0.254141 0.129306  0.103479404762
 H2 0.638349 0.133717 0.191306  0.103479404762
 H2 0.889156 0.98879 0.617383  0.103479404762
 H2 0.94732 0.98337 0.351919  0.103479404762
 H1 0.348701 0.46618 0.992201  0.477326071429
 H2 0.633192 0.637476 0.202169  0.103479404762
 H2 0.66015 0.757418 0.265362  0.103479404762
 H2 0.38784 0.75357 0.370281  0.103479404762
 H2 0.360652 0.634438 0.306788  0.103479404762
 H2 0.111659 0.490122 0.881911  0.103479404762
 H2 0.052759 0.482266 0.147316  0.103479404762
 H1 0.351316 0.036436 0.490256  0.477326071429
 H2 0.635202 0.86732 0.702897  0.103479404762
 H2 0.660444 0.746173 0.76504  0.103479404762
 H2 0.387885 0.749305 0.869336  0.103479404762
 H2 0.362502 0.869748 0.807108  0.103479404762
 H2 0.111843 0.014373 0.381083  0.103479404762
 H2 0.053661 0.0 0.646528  0.103479404762
 H1 0.65139 0.536915 0.007599  0.477326071429
 H2 0.366904 0.365062 0.796985  0.103479404762
 H2 0.340499 0.245331 0.733085  0.103479404762
 H2 0.613015 0.250139 0.628699  0.103479404762
 H2 0.639556 0.369123 0.692633  0.103479404762
 H2 0.888458 0.513209 0.117661  0.103479404762
 H2 0.947394 0.521108 0.85228  0.103479404762
 H1 0.84913 0.036775 0.006316  0.477326071429
 H2 0.133768 0.865731 0.795321  0.103479404762
 H2 0.16014 0.745883 0.73183  0.103479404762
 H2 0.887076 0.749174 0.628627  0.103479404762
 H2 0.860539 0.86826 0.692255  0.103479404762
 H2 0.611825 0.013924 0.116157  0.103479404762
 H2 0.552165 0.0 0.850904  0.103479404762
 H1 0.148929 0.536437 0.490284  0.477326071429
 H2 0.864916 0.366533 0.702198  0.103479404762
 H2 0.840154 0.24493 0.763506  0.103479404762
 H2 0.112039 0.249601 0.869229  0.103479404762
 H2 0.137046 0.370417 0.807638  0.103479404762
 H2 0.388457 0.514053 0.381546  0.103479404762
 H2 0.44662 0.520097 0.646979  0.103479404762
 H1 0.150578 0.966012 0.9916  0.477326071429
 H2 0.866252 0.137655 0.201043  0.103479404762
 H2 0.839511 0.257359 0.264674  0.103479404762
 H2 0.111919 0.253847 0.369364  0.103479404762
 H2 0.138959 0.135026 0.305247  0.103479404762
 H2 0.387878 0.989656 0.881141  0.103479404762
 H2 0.447513 0.982944 0.146424  0.103479404762
 H1 0.847683 0.46654 0.508367  0.477326071429
 H2 0.1332 0.636528 0.298022  0.103479404762
 H2 0.15913 0.757746 0.235999  0.103479404762
 H2 0.887761 0.753719 0.129141  0.103479404762
 H2 0.861708 0.633194 0.191129  0.103479404762
 H2 0.610953 0.489175 0.617948  0.103479404762
 H2 0.5528 0.483076 0.352503  0.103479404762
 C1 0.523985 0.05955 0.292839  0.706379404762
 C2 0.504425 0.12817 0.249129  -0.125270595238
 C3 0.419694 0.162125 0.260539  -0.0543972619048
 C3 0.405245 0.229289 0.226207  -0.0543972619048
 C2 0.475249 0.262959 0.179938  -0.125270595238
 C3 0.558792 0.227868 0.166183  -0.0543972619048
 C3 0.573365 0.160937 0.200661  -0.0543972619048
 C1 0.462726 0.336851 0.147863  0.706379404762
 C1 0.810249 0.966966 0.46621  0.706379404762
 C2 0.908807 0.983963 0.482943  -0.125270595238
 C3 0.938443 0.994311 0.566129  -0.0543972619048
 C3 0.971431 0.991379 0.416149  -0.0543972619048
 C1 0.475525 0.561329 0.206177  0.706379404762
 C2 0.495026 0.629488 0.249896  -0.125270595238
 C3 0.580156 0.6634 0.239216  -0.0543972619048
 C3 0.595057 0.729866 0.274243  -0.0543972619048
 C2 0.525148 0.762787 0.320609  -0.125270595238
 C3 0.441079 0.72779 0.333437  -0.0543972619048
 C3 0.426003 0.661603 0.298115  -0.0543972619048
 C1 0.538408 0.835889 0.353668  0.706379404762
 C1 0.190188 0.467044 0.033521  0.706379404762
 C2 0.091706 0.484079 0.016392  -0.125270595238
 C3 0.06229 0.495109 0.93307  -0.0543972619048
 C3 0.028887 0.490822 0.082986  -0.0543972619048
 C1 0.478081 0.943877 0.706497  0.706379404762
 C2 0.49696 0.875143 0.750337  -0.125270595238
 C3 0.581703 0.841027 0.739613  -0.0543972619048
 C3 0.59566 0.77383 0.774036  -0.0543972619048
 C2 0.525174 0.74024 0.819788  -0.125270595238
 C3 0.441599 0.775475 0.832866  -0.0543972619048
 C3 0.427509 0.842438 0.798246  -0.0543972619048
 C1 0.537383 0.666325 0.85197  0.706379404762
 C1 0.190778 0.036021 0.53238  0.706379404762
 C2 0.092192 0.019124 0.515513  -0.125270595238
 C3 0.062541 0.00882 0.432326  -0.0543972619048
 C3 0.029551 0.0 0.582297  -0.0543972619048
 C1 0.524464 0.441677 0.793552  0.706379404762
 C2 0.505128 0.3736 0.749501  -0.125270595238
 C3 0.420123 0.339422 0.759874  -0.0543972619048
 C3 0.405515 0.273047 0.724435  -0.0543972619048
 C2 0.475631 0.240388 0.678057  -0.125270595238
 C3 0.559572 0.275661 0.665551  -0.0543972619048
 C3 0.574311 0.341779 0.701173  -0.0543972619048
 C1 0.46285 0.167265 0.644719  0.706379404762
 C1 0.80989 0.536135 0.96616  0.706379404762
 C2 0.908425 0.51923 0.983208  -0.125270595238
 C3 0.937852 0.508227 0.066526  -0.0543972619048
 C3 0.971251 0.512528 0.916612  -0.0543972619048
 C1 0.975978 0.941393 0.792465  0.706379404762
 C2 0.995248 0.873419 0.748434  -0.125270595238
 C3 0.080449 0.839721 0.758549  -0.0543972619048
 C3 0.095035 0.773309 0.723369  -0.0543972619048
 C2 0.024725 0.740231 0.677484  -0.125270595238
 C3 0.940615 0.775064 0.665146  -0.0543972619048
 C3 0.925882 0.841205 0.700545  -0.0543972619048
 C1 0.037399 0.667075 0.644481  0.706379404762
 C1 0.690047 0.036188 0.964363  0.706379404762
 C2 0.591485 0.01934 0.981726  -0.125270595238
 C3 0.562254 0.008676 0.065189  -0.0543972619048
 C3 0.528449 0.0 0.915336  -0.0543972619048
 C1 0.021756 0.4439 0.706581  0.706379404762
 C2 0.002864 0.375069 0.75028  -0.125270595238
 C3 0.91836 0.34045 0.739021  -0.0543972619048
 C3 0.904685 0.273016 0.772978  -0.0543972619048
 C2 0.975156 0.23976 0.818852  -0.125270595238
 C3 0.058399 0.275543 0.832613  -0.0543972619048
 C3 0.07225 0.34271 0.798381  -0.0543972619048
 C1 0.963292 0.165629 0.850457  0.706379404762
 C1 0.309542 0.536055 0.532697  0.706379404762
 C2 0.408081 0.519164 0.515959  -0.125270595238
 C3 0.437707 0.508661 0.432817  -0.0543972619048
 C3 0.470687 0.511958 0.582768  -0.0543972619048
 C1 0.023713 0.061746 0.204674  0.706379404762
 C2 0.004502 0.129851 0.248545  -0.125270595238
 C3 0.919377 0.163601 0.238114  -0.0543972619048
 C3 0.904582 0.229944 0.273405  -0.0543972619048
 C2 0.974534 0.262907 0.319886  -0.125270595238
 C3 0.058613 0.228074 0.332438  -0.0543972619048
 C3 0.073611 0.16204 0.296783  -0.0543972619048
 C1 0.961353 0.335866 0.353381  0.706379404762
 C1 0.309703 0.967074 0.033002  0.706379404762
 C2 0.408201 0.984184 0.015588  -0.125270595238
 C3 0.437414 0.994913 0.932135  -0.0543972619048
 C3 0.471223 0.99126 0.081985  -0.0543972619048
 C1 0.976009 0.559571 0.292874  0.706379404762
 C2 0.995523 0.628286 0.249216  -0.125270595238
 C3 0.080145 0.662651 0.260762  -0.0543972619048
 C3 0.094465 0.729872 0.226414  -0.0543972619048
 C2 0.024472 0.763198 0.180002  -0.125270595238
 C3 0.941041 0.727709 0.166132  -0.0543972619048
 C3 0.926589 0.660722 0.200627  -0.0543972619048
 C1 0.036991 0.837106 0.147837  0.706379404762
 C1 0.689774 0.466947 0.466732  0.706379404762
 C2 0.591323 0.484006 0.483509  -0.125270595238
 C3 0.561718 0.494554 0.56666  -0.0543972619048
 C3 0.528727 0.491243 0.416705  -0.0543972619048
 O1 0.596814 0.991454 0.480833  -1.01993392857
 O2 0.460157 0.031142 0.3367  -0.623947928571
 O2 0.605383 0.03474 0.28466  -0.623947928571
 O2 0.531023 0.364188 0.107537  -0.623947928571
 O2 0.387022 0.367863 0.163185  -0.623947928571
 O2 0.785303 0.972002 0.387502  -0.623947928571
 O3 0.757693 0.950434 0.526365  -0.635503928571
 O1 0.40419 0.490871 0.01921  -1.01993392857
 O2 0.539699 0.533696 0.1627  -0.623947928571
 O2 0.394153 0.536117 0.214289  -0.623947928571
 O2 0.471303 0.861978 0.396141  -0.623947928571
 O2 0.613519 0.867687 0.337052  -0.623947928571
 O2 0.215048 0.472033 0.112185  -0.623947928571
 O3 0.242715 0.450513 0.973693  -0.635503928571
 O1 0.405977 0.011882 0.518421  -1.01993392857
 O2 0.542593 0.971972 0.663116  -0.623947928571
 O2 0.396814 0.96903 0.71416  -0.623947928571
 O2 0.469006 0.639038 0.892255  -0.623947928571
 O2 0.613044 0.635216 0.836753  -0.623947928571
 O2 0.215365 0.030919 0.611246  -0.623947928571
 O3 0.243595 0.0525 0.472458  -0.635503928571
 O1 0.595856 0.512279 0.980591  -1.01993392857
 O2 0.460292 0.469215 0.837138  -0.623947928571
 O2 0.605829 0.466941 0.785563  -0.623947928571
 O2 0.531105 0.141055 0.603845  -0.623947928571
 O2 0.387185 0.135661 0.659527  -0.623947928571
 O2 0.784961 0.531115 0.887521  -0.623947928571
 O3 0.757391 0.552568 0.0  -0.635503928571
 O1 0.904372 0.011975 0.979415  -1.01993392857
 O2 0.040744 0.969246 0.835339  -0.623947928571
 O2 0.894497 0.966197 0.785326  -0.623947928571
 O2 0.969015 0.640661 0.603772  -0.623947928571
 O2 0.11299 0.635655 0.659392  -0.623947928571
 O2 0.714824 0.031011 0.885653  -0.623947928571
 O3 0.742769 0.052722 0.0  -0.635503928571
 O1 0.09412 0.51188 0.518384  -1.01993392857
 O2 0.957309 0.471868 0.66318  -0.623947928571
 O2 0.103061 0.469202 0.714284  -0.623947928571
 O2 0.031003 0.138968 0.892051  -0.623947928571
 O2 0.888517 0.133673 0.833433  -0.623947928571
 O2 0.284741 0.530937 0.611506  -0.623947928571
 O3 0.256919 0.552553 0.472719  -0.635503928571
 O1 0.095303 0.990897 0.01831  -1.01993392857
 O2 0.958894 0.03359 0.162251  -0.623947928571
 O2 0.105336 0.037092 0.211671  -0.623947928571
 O2 0.028493 0.36194 0.396026  -0.623947928571
 O2 0.886302 0.367587 0.336966  -0.623947928571
 O2 0.285007 0.972164 0.111708  -0.623947928571
 O3 0.256982 0.950368 0.973357  -0.635503928571
 O1 0.903172 0.491171 0.480841  -1.01993392857
 O2 0.039832 0.53127 0.336676  -0.623947928571
 O2 0.894583 0.534561 0.284686  -0.623947928571
 O2 0.968811 0.864276 0.107429  -0.623947928571
 O2 0.112757 0.868278 0.163212  -0.623947928571
 O2 0.714711 0.471948 0.388012  -0.623947928571
 O3 0.742268 0.450372 0.526848  -0.635503928571
